L6/1726540/Vaos.dss
! ==========================================================
! VAOS DE SAIDA — barra de MT da SE -> cabeceira do alimentador
! Derivado de CTMT.BARR e CTMT.UNI_TR_AT: a BDGD nao modela o
! arranjo interno da subestacao, so o vinculo logico.
! Cada vao e o disjuntor de saida do alimentador.
! ==========================================================
New Line.VAO_BSOT313 phases=3 Bus1=5144376.1.2.3 Bus2=segm_2603238005.1.2.3 Switch=y r1=0.0001 r0=0.0001 x1=0 x0=0 c1=0 c0=0
New Monitor.M_BSOT313 element=Line.VAO_BSOT313 terminal=1 mode=1 ppolar=no
New Line.VAO_BSOT315 phases=3 Bus1=5144376.1.2.3 Bus2=segm_2603238046.1.2.3 Switch=y r1=0.0001 r0=0.0001 x1=0 x0=0 c1=0 c0=0
New Monitor.M_BSOT315 element=Line.VAO_BSOT315 terminal=1 mode=1 ppolar=no
New Line.VAO_BSOT312 phases=3 Bus1=5144376.1.2.3 Bus2=segm_2603237982.1.2.3 Switch=y r1=0.0001 r0=0.0001 x1=0 x0=0 c1=0 c0=0
New Monitor.M_BSOT312 element=Line.VAO_BSOT312 terminal=1 mode=1 ppolar=no
